/Users/matthewrobinson/Documents/LigParGen/LigParGen_package_new/tests/data/ZINC00000349.pdb
 OpenBabel09271723573D

 29 30  0  0  0  0  0  0  0  0999 V2000
    8.7180    1.5950    0.0860 C   0  0  0  0  0  0  0  0  0  0  0  0
    7.3780    1.1000    0.0440 O   0  0  0  0  0  0  0  0  0  0  0  0
    7.2200   -0.2490   -0.0220 C   0  0  0  0  0  0  0  0  0  0  0  0
    8.3300   -1.0780   -0.0440 C   0  0  0  0  0  0  0  0  0  0  0  0
    8.1680   -2.4490   -0.1100 C   0  0  0  0  0  0  0  0  0  0  0  0
    6.8990   -2.9970   -0.1540 C   0  0  0  0  0  0  0  0  0  0  0  0
    5.7870   -2.1760   -0.1270 C   0  0  0  0  0  0  0  0  0  0  0  0
    5.9430   -0.8000   -0.0660 C   0  0  0  0  0  0  0  0  0  0  0  0
    4.8500    0.0090   -0.0450 O   0  0  0  0  0  0  0  0  0  0  0  0
    4.4260    0.4950   -1.2270 C   0  0  0  0  0  0  0  0  0  0  0  0
    5.0670    0.2810   -2.2370 O   0  0  0  0  0  0  0  0  0  0  0  0
    3.1810    1.2880   -1.2960 C   0  0  0  0  0  0  0  0  0  0  0  0
    2.7390    1.7930   -2.5200 C   0  0  0  0  0  0  0  0  0  0  0  0
    1.5750    2.5320   -2.5780 C   0  0  0  0  0  0  0  0  0  0  0  0
    0.8480    2.7740   -1.4250 C   0  0  0  0  0  0  0  0  0  0  0  0
    1.2810    2.2760   -0.2090 C   0  0  0  0  0  0  0  0  0  0  0  0
    2.4420    1.5350   -0.1380 C   0  0  0  0  0  0  0  0  0  0  0  0
    9.2500    1.2810   -0.8120 H   0  0  0  0  0  0  0  0  0  0  0  0
    8.7010    2.6840    0.1370 H   0  0  0  0  0  0  0  0  0  0  0  0
    9.2240    1.1980    0.9660 H   0  0  0  0  0  0  0  0  0  0  0  0
    9.3220   -0.6530   -0.0090 H   0  0  0  0  0  0  0  0  0  0  0  0
    9.0340   -3.0940   -0.1270 H   0  0  0  0  0  0  0  0  0  0  0  0
    6.7770   -4.0690   -0.2050 H   0  0  0  0  0  0  0  0  0  0  0  0
    4.7970   -2.6070   -0.1570 H   0  0  0  0  0  0  0  0  0  0  0  0
    3.3060    1.6060   -3.4200 H   0  0  0  0  0  0  0  0  0  0  0  0
    1.2320    2.9240   -3.5240 H   0  0  0  0  0  0  0  0  0  0  0  0
   -0.0590    3.3570   -1.4750 H   0  0  0  0  0  0  0  0  0  0  0  0
    0.7090    2.4680    0.6860 H   0  0  0  0  0  0  0  0  0  0  0  0
    2.7790    1.1470    0.8120 H   0  0  0  0  0  0  0  0  0  0  0  0
  1  2  1  0  0  0  0
  1 18  1  0  0  0  0
  1 19  1  0  0  0  0
  1 20  1  0  0  0  0
  2  3  1  0  0  0  0
  3  8  2  0  0  0  0
  3  4  1  0  0  0  0
  4  5  2  0  0  0  0
  4 21  1  0  0  0  0
  5  6  1  0  0  0  0
  5 22  1  0  0  0  0
  6  7  2  0  0  0  0
  6 23  1  0  0  0  0
  7  8  1  0  0  0  0
  7 24  1  0  0  0  0
  8  9  1  0  0  0  0
  9 10  1  0  0  0  0
 10 11  2  0  0  0  0
 10 12  1  0  0  0  0
 12 17  2  0  0  0  0
 12 13  1  0  0  0  0
 13 14  2  0  0  0  0
 13 25  1  0  0  0  0
 14 15  1  0  0  0  0
 14 26  1  0  0  0  0
 15 16  2  0  0  0  0
 15 27  1  0  0  0  0
 16 17  1  0  0  0  0
 16 28  1  0  0  0  0
 17 29  1  0  0  0  0
M  END
